Version 4
SHEET 1 920 680
WIRE 176 0 -128 0
WIRE 368 0 176 0
WIRE 576 0 464 0
WIRE 576 32 576 0
WIRE -128 128 -128 0
WIRE 176 128 176 0
WIRE 112 144 32 144
WIRE 128 144 112 144
WIRE 576 160 576 112
WIRE 176 240 176 224
WIRE 384 240 384 48
WIRE 384 240 176 240
WIRE 528 240 384 240
WIRE 176 256 176 240
WIRE -128 320 -128 208
WIRE 32 320 32 224
WIRE 32 320 -128 320
WIRE 512 480 256 480
WIRE 752 480 608 480
WIRE 832 480 752 480
WIRE 384 528 384 240
WIRE 528 528 384 528
WIRE 832 560 256 560
WIRE 256 592 256 560
FLAG 176 336 0
FLAG 576 256 0
FLAG 256 592 0
FLAG 32 320 0
FLAG 576 0 vcc
FLAG 752 480 vgpio
FLAG 112 144 reset
SYMBOL voltage -128 112 R0
WINDOW 123 0 0 Left 2
WINDOW 39 0 0 Left 2
SYMATTR InstName V1
SYMATTR Value 3.3
SYMBOL AutoGenerated\\DMP2035U 128 224 M180
SYMATTR InstName U1
SYMBOL AutoGenerated\\DMP2035U 608 528 M270
SYMATTR InstName U2
SYMBOL AutoGenerated\\DMP2035U 464 48 M270
SYMATTR InstName U3
SYMBOL Parts_TCO\\FDV301N 528 160 R0
SYMATTR InstName U4
SYMBOL res 560 16 R0
SYMATTR InstName R1
SYMATTR Value 100
SYMBOL res 160 240 R0
SYMATTR InstName R2
SYMATTR Value 100K
SYMBOL res 816 464 R0
SYMATTR InstName R3
SYMATTR Value 100K
SYMBOL voltage 256 464 R0
WINDOW 123 0 0 Left 2
WINDOW 39 0 0 Left 2
SYMATTR InstName V2
SYMATTR Value PWL(0 0 0.5m 0 0.501m 3.3 1.5m 3.3 1.501m 0)
SYMBOL voltage 32 128 R0
WINDOW 123 0 0 Left 2
WINDOW 39 0 0 Left 2
SYMATTR InstName V3
SYMATTR Value PWL(0 0 1m 0 1.01m 3.3)
TEXT -162 616 Left 2 !.tran 0 5m 0 uic
